! Std 140 Case 980FF.idf (increased  insulation - free floating)
! Basic file description: BESTEST High-Mass building loads test.
! Author:   Jason Glazer,  GARD Analytics, Inc.
! Date:     May 2017
! Spec:     ASHRAE 140-2014  Section 5.2 revised
! Run:      Annual run for Denver, CO location
! Building: Fictional 1 zone building with resistive walls and window.
!           200 watt constant internal load, 0.5 ACH Infiltration
!           20C heating, 27C cooling
! Internal: None.
! System:   None.
! Plant:    None.
! Modified: Conforms with Beta 2 input

  VERSION,9.0;

  Site:Location,
    Denver COLORADO,         !- Name
    39.833,                  !- Latitude {deg}
    -104.650,                !- Longitude {deg}
    -7.000000,               !- Time Zone {hr}
    1650.;                   !- Elevation {m}

  RunPeriod,
    ,                        !- Name
    1,                       !- Begin Month
    1,                       !- Begin Day of Month
    ,                        !- Begin Year
    12,                      !- End Month
    31,                      !- End Day of Month
    ,                        !- End Year
    ,                        !- Day of Week for Start Day
    ,                        !- Use Weather File Holidays and Special Days
    ,                        !- Use Weather File Daylight Saving Period
    ,                        !- Apply Weekend Holiday Rule
    ,                        !- Use Weather File Rain Indicators
    ,                        !- Use Weather File Snow Indicators
    ;                        !- Treat Weather as Actual

! DesignDay,
!   DENVER CONSTANT WINTER-NOSUN,     ! Design Day Name
!     -17.22222    ,     ! Max Dry-Bulb {C}
!     0.0000000E+00,     ! Daily Temp Range {C}
!     -17.22222    ,     ! Wet-Bulb at Max {C}
!      83442.47    ,     ! Barometric Pressure {N/M**2}
!      4.115816    ,     ! Wind Speed {M/Sec}
!      169.0000    ,     ! Wind Direction {Degrees N=0, S=180}
!     0.0000000E+00,     ! Clearness {0.0 to 1.1}
!                 0,     ! Rain {0-no,1-yes}
!                 0,     ! Snow on ground {0-no,1-yes}
!                21,     ! Day of Month
!                 1,     ! Month
!            Monday,     ! Day Type
!                 0;     ! Daylight Savings Time Indicator
!
! DesignDay,
!  DENVER CONSTANT SUMMER-NOSUN,     ! Design Day Name
!     32.77778    ,     ! Max Dry-Bulb {C}
!     0.000000    ,     ! Daily Temp Range {C}
!     15.00000    ,     ! Wet-Bulb at Max {C}
!     84139.90    ,     ! Barometric Pressure {N/M**2}
!     3.971544    ,     ! Wind Speed {M/Sec}
!     146.0000    ,     ! Wind Direction {Degrees N=0, S=180}
!     0.0000      ,     ! Clearness {0.0 to 1.1}
!                0,     ! Rain {0-no,1-yes}
!                0,     ! Snow on ground {0-no,1-yes}
!               21,     ! Day of Month
!                7,     ! Month
!           Monday,     ! Day Type
!                0;     ! Daylight Savings Time Indicator

  Material,
    CONCRETE BLOCK,          !- Name
    Smooth,                  !- Roughness
    0.1000,                  !- Thickness {m}
    0.51000,                 !- Conductivity {W/m-K}
    1400.000,                !- Density {kg/m3}
    1000.00,                 !- Specific Heat {J/kg-K}
    0.9000000,               !- Thermal Absorptance
    0.600000,                !- Solar Absorptance
    0.600000;                !- Visible Absorptance

  Material,
    FOAM INSULATION,         !- Name
    Rough,                   !- Roughness
    0.2452,                  !- Thickness {m}
    0.04,                    !- Conductivity {W/m-K}
    10.,                     !- Density {kg/m3}
    1400.,                   !- Specific Heat {J/kg-K}
    0.9000000,               !- Thermal Absorptance
    0.600000,                !- Solar Absorptance
    0.600000;                !- Visible Absorptance

  Material,
    WOOD SIDING-1,           !- Name
    Rough,                   !- Roughness
    0.00900,                 !- Thickness {m}
    0.14000,                 !- Conductivity {W/m-K}
    530.000,                 !- Density {kg/m3}
    900.00,                  !- Specific Heat {J/kg-K}
    0.9000000,               !- Thermal Absorptance
    0.600000,                !- Solar Absorptance
    0.600000;                !- Visible Absorptance

              ! Material layer names follow:

  Construction,
    HWWALL,                  !- Name
    WOOD SIDING-1,           !- Outside Layer
    FOAM INSULATION,         !- Layer 2
    CONCRETE BLOCK;          !- Layer 3

  Material,
    CONCRETE SLAB,           !- Name
    Smooth,                  !- Roughness
    0.08000,                 !- Thickness {m}
    1.13000,                 !- Conductivity {W/m-K}
    1400.000,                !- Density {kg/m3}
    1000.0,                  !- Specific Heat {J/kg-K}
    0.9000000,               !- Thermal Absorptance
    0.600000,                !- Solar Absorptance
    0.600000;                !- Visible Absorptance

  Material:NoMass,
    R-25 INSULATION,         !- Name
    Rough,                   !- Roughness
    25.175,                  !- Thermal Resistance {m2-K/W}
    0.9000000,               !- Thermal Absorptance
    0.600000,                !- Solar Absorptance
    0.600000;                !- Visible Absorptance

             ! Material layer names follow:

  Construction,
    HWFLOOR,                 !- Name
    R-25 INSULATION,         !- Outside Layer
    CONCRETE SLAB;           !- Layer 2

  Material,
    PLASTERBOARD-2,          !- Name
    Smooth,                  !- Roughness
    0.01000,                 !- Thickness {m}
    0.16000,                 !- Conductivity {W/m-K}
    950.000,                 !- Density {kg/m3}
    840.00,                  !- Specific Heat {J/kg-K}
    0.9000000,               !- Thermal Absorptance
    0.600000,                !- Solar Absorptance
    0.600000;                !- Visible Absorptance

  Material,
    FIBERGLASS QUILT-2,      !- Name
    Rough,                   !- Roughness
    0.4,                     !- Thickness {m}
    0.04,                    !- Conductivity {W/m-K}
    12.,                     !- Density {kg/m3}
    840.,                    !- Specific Heat {J/kg-K}
    0.9000000,               !- Thermal Absorptance
    0.600000,                !- Solar Absorptance
    0.600000;                !- Visible Absorptance

  Material,
    ROOF DECK,               !- Name
    Rough,                   !- Roughness
    0.01900,                 !- Thickness {m}
    0.14000,                 !- Conductivity {W/m-K}
    530.000,                 !- Density {kg/m3}
    900.00,                  !- Specific Heat {J/kg-K}
    0.9000000,               !- Thermal Absorptance
    0.600000,                !- Solar Absorptance
    0.600000;                !- Visible Absorptance

               ! Material layer names follow:

  Construction,
    LTROOF,                  !- Name
    ROOF DECK,               !- Outside Layer
    FIBERGLASS QUILT-2,      !- Layer 2
    PLASTERBOARD-2;          !- Layer 3

  WindowMaterial:Glazing,
    Glass Type 1,            !- Name
    SpectralAverage,         !- Optical Data Type
    ,                        !- Window Glass Spectral Data Set Name
    0.003048,                !- Thickness {m}
    0.834,                   !- Solar Transmittance at Normal Incidence
    0.075,                   !- Front Side Solar Reflectance at Normal Incidence
    0.075,                   !- Back Side Solar Reflectance at Normal Incidence
    0.91325,                 !- Visible Transmittance at Normal Incidence
    0.08200,                 !- Front Side Visible Reflectance at Normal Incidence
    0.08200,                 !- Back Side Visible Reflectance at Normal Incidence
    0.0,                     !- Infrared Transmittance at Normal Incidence
    0.84,                    !- Front Side Infrared Hemispherical Emissivity
    0.84,                    !- Back Side Infrared Hemispherical Emissivity
    1.00;                    !- Conductivity {W/m-K}

  WindowMaterial:Gas,
    Air Space Resistance,    !- Name
    AIR,                     !- Gas Type
    0.012;                   !- Thickness {m}

!         0.,       !N2 [Density at 273K {kg/m3}] Used for type=CUSTOM
!         0.,       !N3 [Density temperature derivative {kg/m3-K}] Used for type=CUSTOM
!         0.,       !N4 [Conductivity {W/m-K}] Used for type=CUSTOM
!         0.,       !N5 [Conductivity temperature derivative {W/m-K2}] Used for type=CUSTOM
!         0.,       !N6 [Viscosity {kg/ms}] Used for type=CUSTOM
!         0.,       !N7 [Viscosity temperature derivative {kg/m-s-K}] Used for type=CUSTOM
!         0.,       !N8 [Prandtl number at 273K] Used for type=CUSTOM
!         0.;       !N9 [Prandtl number temperature derivative {1/K}] Used for type=CUSTOM
               ! Material layer names follow:

  Construction,
    Double Pane Window,      !- Name
    Glass Type 1,            !- Outside Layer
    Air Space Resistance,    !- Layer 2
    Glass Type 1;            !- Layer 3

  Site:GroundReflectance,0.2,0.2,0.2,0.2,0.2,0.2,0.2,0.2,0.2,0.2,0.2,0.2;

  Timestep,6;

  SurfaceConvectionAlgorithm:Inside,TARP;

  SurfaceConvectionAlgorithm:Outside,DOE-2;

  ShadowCalculation,
    AverageOverDaysInFrequency,  !- Calculation Method
    1;                       !- Calculation Frequency

  Building,
    BESTEST Case 900,        !- Name
    0.0000000E+00,           !- North Axis {deg}
    Country,                 !- Terrain
    0.04,                    !- Loads Convergence Tolerance Value
    0.4,                     !- Temperature Convergence Tolerance Value {deltaC}
    FullInteriorAndExterior, !- Solar Distribution
    ,                        !- Maximum Number of Warmup Days
    6;                       !- Minimum Number of Warmup Days

  Zone,
    ZONE ONE,                !- Name
    0.0000000E+00,           !- Direction of Relative North {deg}
    0.0000000E+00,           !- X Origin {m}
    0.0000000E+00,           !- Y Origin {m}
    0.0000000E+00,           !- Z Origin {m}
    1,                       !- Type
    1,                       !- Multiplier
    2.7000,                  !- Ceiling Height {m}
    129.6;                   !- Volume {m3}

  ! ZoneCapacitanceMultiplier,1;

  GlobalGeometryRules,
    UpperLeftCorner,         !- Starting Vertex Position
    Counterclockwise,        !- Vertex Entry Direction
    WorldCoordinateSystem;   !- Coordinate System

  BuildingSurface:Detailed,
    ZONE SURFACE NORTH,      !- Name
    Wall,                    !- Surface Type
    HWWALL,                  !- Construction Name
    ZONE ONE,                !- Zone Name
    Outdoors,                !- Outside Boundary Condition
    ,                        !- Outside Boundary Condition Object
    SunExposed,              !- Sun Exposure
    WindExposed,             !- Wind Exposure
    0.5000000,               !- View Factor to Ground
    4,                       !- Number of Vertices
    8.000000,6.000000,2.700000,  !- X,Y,Z ==> Vertex 1 {m}
    8.000000,6.000000,0.0000000E+00,  !- X,Y,Z ==> Vertex 2 {m}
    0.0000000E+00,6.000000,0.0000000E+00,  !- X,Y,Z ==> Vertex 3 {m}
    0.0000000E+00,6.000000,2.700000;  !- X,Y,Z ==> Vertex 4 {m}

  BuildingSurface:Detailed,
    ZONE SURFACE EAST,       !- Name
    Wall,                    !- Surface Type
    HWWALL,                  !- Construction Name
    ZONE ONE,                !- Zone Name
    Outdoors,                !- Outside Boundary Condition
    ,                        !- Outside Boundary Condition Object
    SunExposed,              !- Sun Exposure
    WindExposed,             !- Wind Exposure
    0.5000000,               !- View Factor to Ground
    4,                       !- Number of Vertices
    8.000000,0.0000000E+00,2.700000,  !- X,Y,Z ==> Vertex 1 {m}
    8.000000,0.0000000E+00,0.0000000E+00,  !- X,Y,Z ==> Vertex 2 {m}
    8.000000,6.000000,0.0000000E+00,  !- X,Y,Z ==> Vertex 3 {m}
    8.000000,6.000000,2.700000;  !- X,Y,Z ==> Vertex 4 {m}

  BuildingSurface:Detailed,
    ZONE SURFACE SOUTH,      !- Name
    Wall,                    !- Surface Type
    HWWALL,                  !- Construction Name
    ZONE ONE,                !- Zone Name
    Outdoors,                !- Outside Boundary Condition
    ,                        !- Outside Boundary Condition Object
    SunExposed,              !- Sun Exposure
    WindExposed,             !- Wind Exposure
    0.5000000,               !- View Factor to Ground
    4,                       !- Number of Vertices
    0.0000000E+00,0.0000000E+00,2.700000,  !- X,Y,Z ==> Vertex 1 {m}
    0.0000000E+00,0.0000000E+00,0.0000000E+00,  !- X,Y,Z ==> Vertex 2 {m}
    8.000000,0.0000000E+00,0.0000000E+00,  !- X,Y,Z ==> Vertex 3 {m}
    8.000000,0.0000000E+00,2.700000;  !- X,Y,Z ==> Vertex 4 {m}

  FenestrationSurface:Detailed,
    ZONE SUBSURFACE 1,       !- Name
    Window,                  !- Surface Type
    DOUBLE PANE WINDOW,      !- Construction Name
    ZONE SURFACE SOUTH,      !- Building Surface Name
    ,                        !- Outside Boundary Condition Object
    0.5000000,               !- View Factor to Ground
    ,                        !- Frame and Divider Name
    1,                       !- Multiplier
    4,                       !- Number of Vertices
    0.5000000,0.0000000E+00,2.200000,  !- X,Y,Z ==> Vertex 1 {m}
    0.5000000,0.0000000E+00,0.2000000,  !- X,Y,Z ==> Vertex 2 {m}
    3.500000,0.0000000E+00,0.2000000,  !- X,Y,Z ==> Vertex 3 {m}
    3.500000,0.0000000E+00,2.200000;  !- X,Y,Z ==> Vertex 4 {m}

  FenestrationSurface:Detailed,
    ZONE SUBSURFACE 2,       !- Name
    Window,                  !- Surface Type
    DOUBLE PANE WINDOW,      !- Construction Name
    ZONE SURFACE SOUTH,      !- Building Surface Name
    ,                        !- Outside Boundary Condition Object
    0.5000000,               !- View Factor to Ground
    ,                        !- Frame and Divider Name
    1,                       !- Multiplier
    4,                       !- Number of Vertices
    4.500000,0.0000000E+00,2.200000,  !- X,Y,Z ==> Vertex 1 {m}
    4.500000,0.0000000E+00,0.2000000,  !- X,Y,Z ==> Vertex 2 {m}
    7.500000,0.0000000E+00,0.2000000,  !- X,Y,Z ==> Vertex 3 {m}
    7.500000,0.0000000E+00,2.200000;  !- X,Y,Z ==> Vertex 4 {m}

  BuildingSurface:Detailed,
    ZONE SURFACE WEST,       !- Name
    Wall,                    !- Surface Type
    HWWALL,                  !- Construction Name
    ZONE ONE,                !- Zone Name
    Outdoors,                !- Outside Boundary Condition
    ,                        !- Outside Boundary Condition Object
    SunExposed,              !- Sun Exposure
    WindExposed,             !- Wind Exposure
    0.5000000,               !- View Factor to Ground
    4,                       !- Number of Vertices
    0.0000000E+00,6.000000,2.700000,  !- X,Y,Z ==> Vertex 1 {m}
    0.0000000E+00,6.000000,0.0000000E+00,  !- X,Y,Z ==> Vertex 2 {m}
    0.0000000E+00,0.0000000E+00,0.0000000E+00,  !- X,Y,Z ==> Vertex 3 {m}
    0.0000000E+00,0.0000000E+00,2.700000;  !- X,Y,Z ==> Vertex 4 {m}

  BuildingSurface:Detailed,
    ZONE SURFACE FLOOR,      !- Name
    Floor,                   !- Surface Type
    HWFLOOR,                 !- Construction Name
    ZONE ONE,                !- Zone Name
    Outdoors,                !- Outside Boundary Condition
    ,                        !- Outside Boundary Condition Object
    NoSun,                   !- Sun Exposure
    NoWind,                  !- Wind Exposure
    0.0000000E+00,           !- View Factor to Ground
    4,                       !- Number of Vertices
    0.0000000E+00,0.0000000E+00,0.0000000E+00,  !- X,Y,Z ==> Vertex 1 {m}
    0.0000000E+00,6.000000,0.0000000E+00,  !- X,Y,Z ==> Vertex 2 {m}
    8.000000,6.000000,0.0000000E+00,  !- X,Y,Z ==> Vertex 3 {m}
    8.000000,0.0000000E+00,0.0000000E+00;  !- X,Y,Z ==> Vertex 4 {m}

  BuildingSurface:Detailed,
    ZONE SURFACE ROOF,       !- Name
    Roof,                    !- Surface Type
    LTROOF,                  !- Construction Name
    ZONE ONE,                !- Zone Name
    Outdoors,                !- Outside Boundary Condition
    ,                        !- Outside Boundary Condition Object
    SunExposed,              !- Sun Exposure
    WindExposed,             !- Wind Exposure
    0.0000000E+00,           !- View Factor to Ground
    4,                       !- Number of Vertices
    0.0000000E+00,6.000000,2.700000,  !- X,Y,Z ==> Vertex 1 {m}
    0.0000000E+00,0.0000000E+00,2.700000,  !- X,Y,Z ==> Vertex 2 {m}
    8.000000,0.0000000E+00,2.700000,  !- X,Y,Z ==> Vertex 3 {m}
    8.000000,6.000000,2.700000;  !- X,Y,Z ==> Vertex 4 {m}

  OtherEquipment,
    ZONE ONE OthEq 1,        !- Name
    None,                    !- Fuel Type
    ZONE ONE,                !- Zone or ZoneList Name
    Sch 1,                   !- Schedule Name
    EquipmentLevel,          !- Design Level Calculation Method
    200.0,                   !- Design Level {W}
    ,                        !- Power per Zone Floor Area {W/m2}
    ,                        !- Power per Person {W/person}
    0.000,                   !- Fraction Latent
    0.600,                   !- Fraction Radiant
    0.000;                   !- Fraction Lost

  ScheduleTypeLimits,
    Fraction,                !- Name
    0.0,                     !- Lower Limit Value
    1.0,                     !- Upper Limit Value
    Continuous;              !- Numeric Type

  Schedule:Day:Hourly,
    Day Sch 1,               !- Name
    Fraction,                !- Schedule Type Limits Name
    1,                       !- Hour 1
    1,                       !- Hour 2
    1,                       !- Hour 3
    1,                       !- Hour 4
    1,                       !- Hour 5
    1,                       !- Hour 6
    1,                       !- Hour 7
    1,                       !- Hour 8
    1,                       !- Hour 9
    1,                       !- Hour 10
    1,                       !- Hour 11
    1,                       !- Hour 12
    1,                       !- Hour 13
    1,                       !- Hour 14
    1,                       !- Hour 15
    1,                       !- Hour 16
    1,                       !- Hour 17
    1,                       !- Hour 18
    1,                       !- Hour 19
    1,                       !- Hour 20
    1,                       !- Hour 21
    1,                       !- Hour 22
    1,                       !- Hour 23
    1;                       !- Hour 24

  Schedule:Week:Daily,
    Week Sch 1,              !- Name
    Day Sch 1,               !- Sunday Schedule:Day Name
    Day Sch 1,               !- Monday Schedule:Day Name
    Day Sch 1,               !- Tuesday Schedule:Day Name
    Day Sch 1,               !- Wednesday Schedule:Day Name
    Day Sch 1,               !- Thursday Schedule:Day Name
    Day Sch 1,               !- Friday Schedule:Day Name
    Day Sch 1,               !- Saturday Schedule:Day Name
    Day Sch 1,               !- Holiday Schedule:Day Name
    Day Sch 1,               !- SummerDesignDay Schedule:Day Name
    Day Sch 1,               !- WinterDesignDay Schedule:Day Name
    Day Sch 1,               !- CustomDay1 Schedule:Day Name
    Day Sch 1;               !- CustomDay2 Schedule:Day Name

  Schedule:Year,
    Sch 1,                   !- Name
    Fraction,                !- Schedule Type Limits Name
    Week Sch 1,              !- Schedule:Week Name 1
    1,                       !- Start Month 1
    1,                       !- Start Day 1
    12,                      !- End Month 1
    31;                      !- End Day 1

  ZoneInfiltration:DesignFlowRate,
    ZONE ONE Infil 1,        !- Name
    ZONE ONE,                !- Zone or ZoneList Name
    Sch 1,                   !- Schedule Name
    Flow/Zone,               !- Design Flow Rate Calculation Method
    0.018,                   !- Design Flow Rate {m3/s}
    ,                        !- Flow per Zone Floor Area {m3/s-m2}
    ,                        !- Flow per Exterior Surface Area {m3/s-m2}
    ,                        !- Air Changes per Hour {1/hr}
    1.0,                     !- Constant Term Coefficient
    0.0,                     !- Temperature Term Coefficient
    0.0,                     !- Velocity Term Coefficient
    0.0;                     !- Velocity Squared Term Coefficient

!  These are report variables Linda uses to trace changes
!report variable,,outdoor dry bulb,hourly;

  Output:Variable,*,Zone Mean Air Temperature,Hourly;

!report variable,,zone latent load,hourly;
!report variable,,lights return air load,hourly;
!report variable,,electric load,hourly;
!report variable,,Electric Load,hourly;
!report variable,,Mean Radiant Temperature,hourly;
!report variable,,Surface Inside face Temperature,hourly;
!report variable,,Surface Outside face Temperature,hourly;

  Output:Variable,*,Zone Air System Sensible Heating Energy,Hourly;

  Output:Variable,*,Zone Air System Sensible Cooling Energy,Hourly;

  Output:Variable,*,Surface Outside Face Incident Solar Radiation Rate per Area,Hourly;

!report variable,,Zone/Sys Sensible Heating Rate,hourly;
!report variable,,Zone/Sys Sensible Cooling Rate,hourly;
!report variable,,Zone/Sys Air Temp,hourly;
!report variable,,Zone Air Humidity Ratio,hourly;
!report variable,,System Node Temp,hourly;
!report variable,,System Node MassFlowRate,hourly;
!report variable,,System Node Humidity Ratio,hourly;
!report variable,,SimAir Iterations,hourly;

  Output:Variable,*,Surface Window Transmitted Solar Radiation Rate,Hourly;

  Output:Variable,*,Surface Window Transmitted Beam Solar Radiation Rate,Hourly;

  Output:Variable,*,Surface Window Transmitted Diffuse Solar Radiation Rate,Hourly;

  Output:Variable,*,Surface Window Transmitted Solar Radiation Energy,Hourly;

  Output:Variable,*,Surface Window Transmitted Beam Solar Radiation Energy,Hourly;

  Output:Variable,*,Surface Window Transmitted Diffuse Solar Radiation Energy,Hourly;

  Output:Surfaces:Drawing,DXF;

  Output:Constructions,Constructions;

  Output:VariableDictionary,Regular;

